   26
 
 C     1.239657    -0.295373     1.220729
 C    -0.045382    -0.510434     0.906829
 C    -0.733321    -1.866669     1.052153
 C     0.086933    -2.920687     1.804286
 C    -0.940760     0.586562     0.466668
 C    -0.738754     1.589030    -0.409464
 C     0.412744     1.880167    -1.294011
 C     0.810068     3.338462    -1.368125
 C     1.018010     0.948342    -2.042709
 C    -1.173713    -2.402332    -0.326337
 H     1.889393    -1.087129     1.579372
 H     1.686542     0.688428     1.119610
 H     1.839493     1.204347    -2.707284
 H     0.719023    -0.094342    -2.010977
 H    -1.923686     0.565334     0.943445
 H    -1.544268     2.323042    -0.485899
 H    -0.041918     3.964376    -1.667371
 H     1.618806     3.499063    -2.087511
 H     1.141722     3.709763    -0.389470
 H    -1.652591    -1.687703     1.633704
 H    -1.789503    -1.673120    -0.863377
 H    -0.298319    -2.625680    -0.948554
 H    -1.755314    -3.325391    -0.217580
 H     0.994613    -3.191869     1.251813
 H    -0.502784    -3.835105     1.934430
 H     0.386989    -2.566509     2.796353
